
#######################################################################
#
#                 Cambridge Crystallographic Data Centre
#                                CCDC 
#
#######################################################################
#
# If this CIF has been generated from an entry in the Cambridge 
# Structural Database, then it will include bibliographic, chemical, 
# crystal, experimental, refinement or atomic coordinate data resulting 
# from the CCDC's data processing and validation procedures.
#
#######################################################################

data_SEDNOG
_symmetry_cell_setting           monoclinic
_symmetry_space_group_name_H-M   'P 21/c'
_symmetry_Int_Tables_number      14
_space_group_name_Hall           '-P 2ybc'
loop_
_symmetry_equiv_pos_site_id
_symmetry_equiv_pos_as_xyz
1 x,y,z
2 -x,1/2+y,1/2-z
3 -x,-y,-z
4 x,1/2-y,1/2+z
_cell_length_a                   16.115(2)
_cell_length_b                   13.3715(19)
_cell_length_c                   17.586(2)
_cell_angle_alpha                90
_cell_angle_beta                 116.788(4)
_cell_angle_gamma                90
_cell_volume                     3382.78
loop_
_atom_site_label
_atom_site_type_symbol
_atom_site_fract_x
_atom_site_fract_y
_atom_site_fract_z
_atom_site_U_iso_or_equiv
_atom_site_thermal_displace_type
C1 C 0.43545(15) 0.11296(17) 0.54685(15) 0.0567 Uani
C2 C 0.44653(18) 0.0189(2) 0.58315(19) 0.0727 Uani
H1 H 0.4828 0.0113 0.6415 0.0870 Uiso
C3 C 0.4043(2) -0.0633(2) 0.5336(3) 0.0854 Uani
H2 H 0.4137 -0.1262 0.5587 0.1020 Uiso
C4 C 0.3485(2) -0.0539(2) 0.4473(2) 0.0806 Uani
H3 H 0.3194 -0.1096 0.4145 0.0960 Uiso
C5 C 0.33638(17) 0.03970(19) 0.40990(17) 0.0668 Uani
H4 H 0.2988 0.0469 0.3517 0.0800 Uiso
C6 C 0.38003(15) 0.12281(16) 0.45895(14) 0.0525 Uani
C7 C 0.36342(16) 0.24476(18) 0.34651(14) 0.0582 Uani
C8 C 0.36820(15) 0.35487(17) 0.33340(13) 0.0537 Uani
C9 C 0.36515(18) 0.3913(2) 0.25836(15) 0.0692 Uani
H5 H 0.3591 0.3480 0.2148 0.0830 Uiso
C10 C 0.37120(19) 0.4930(2) 0.24971(16) 0.0744 Uani
H6 H 0.3686 0.5192 0.1997 0.0890 Uiso
C11 C 0.38101(17) 0.55534(19) 0.31499(14) 0.0639 Uani
H7 H 0.3861 0.6241 0.3104 0.0770 Uiso
C12 C 0.38325(14) 0.51369(17) 0.38821(13) 0.0505 Uani
C13 C 0.39121(14) 0.58002(16) 0.45987(13) 0.0514 Uani
C14 C 0.35955(15) 0.57736(16) 0.58596(12) 0.0510 Uani
C15 C 0.34498(19) 0.67862(18) 0.59079(15) 0.0712 Uani
H8 H 0.3480 0.7219 0.5508 0.0850 Uiso
C16 C 0.3259(2) 0.7161(2) 0.65463(17) 0.0841 Uani
H9 H 0.3167 0.7844 0.6578 0.1010 Uiso
C17 C 0.3205(2) 0.6525(2) 0.71292(16) 0.0760 Uani
H10 H 0.3068 0.6774 0.7554 0.0910 Uiso
C18 C 0.33530(17) 0.5515(2) 0.70914(14) 0.0651 Uani
H11 H 0.3318 0.5091 0.7495 0.0780 Uiso
C19 C 0.35532(15) 0.51195(16) 0.64623(13) 0.0527 Uani
N1 N 0.47604(14) 0.19817(15) 0.59598(12) 0.0698 Uani
H12 H 0.5089 0.1929 0.6502 0.0840 Uiso
H13 H 0.4681 0.2558 0.5719 0.0840 Uiso
N2 N 0.37155(13) 0.21948(13) 0.42353(11) 0.0561 Uani
H14 H 0.3716 0.2683 0.4554 0.0670 Uiso
N3 N 0.37602(11) 0.41524(13) 0.39753(10) 0.0492 Uani
N4 N 0.37137(12) 0.53453(13) 0.51801(10) 0.0531 Uani
H15 H 0.3650 0.4706 0.5131 0.0640 Uiso
N5 N 0.36430(16) 0.40895(14) 0.63973(12) 0.0732 Uani
H16 H 0.3574 0.3692 0.6749 0.0880 Uiso
H17 H 0.3767 0.3852 0.6005 0.0880 Uiso
O1 O 0.35461(15) 0.18466(14) 0.29077(11) 0.0855 Uani
O2 O 0.41419(12) 0.66838(12) 0.46343(10) 0.0715 Uani
C20 C 0.17326(16) 0.12119(17) 0.54610(14) 0.0595 Uani
C21 C 0.1855(2) 0.0278(2) 0.51982(17) 0.0791 Uani
H18 H 0.2159 0.0214 0.4860 0.0950 Uiso
C22 C 0.1536(2) -0.0550(2) 0.54274(19) 0.0927 Uani
H19 H 0.1634 -0.1174 0.5249 0.1120 Uiso
C23 C 0.1070(2) -0.0491(2) 0.5919(2) 0.0945 Uani
H20 H 0.0852 -0.1065 0.6069 0.1130 Uiso
C24 C 0.09334(19) 0.0449(2) 0.61835(16) 0.0770 Uani
H21 H 0.0620 0.0509 0.6514 0.0920 Uiso
C25 C 0.12632(15) 0.12930(16) 0.59563(13) 0.0540 Uani
C26 C 0.12533(15) 0.25678(18) 0.69715(14) 0.0559 Uani
C27 C 0.11011(14) 0.36643(17) 0.70308(13) 0.0521 Uani
C28 C 0.09796(16) 0.4040(2) 0.77077(14) 0.0634 Uani
H22 H 0.1010 0.3620 0.8141 0.0760 Uiso
C29 C 0.08132(17) 0.5045(2) 0.77273(15) 0.0672 Uani
H23 H 0.0737 0.5314 0.8179 0.0810 Uiso
C30 C 0.07603(16) 0.56495(18) 0.70755(14) 0.0613 Uani
H24 H 0.0635 0.6329 0.7072 0.0740 Uiso
C31 C 0.08984(14) 0.52229(16) 0.64204(13) 0.0501 Uani
C32 C 0.08088(15) 0.58507(16) 0.56789(14) 0.0538 Uani
C33 C 0.12547(14) 0.58448(16) 0.44901(13) 0.0490 Uani
C34 C 0.11760(18) 0.68596(18) 0.43216(15) 0.0658 Uani
H25 H 0.1027 0.7292 0.4656 0.0790 Uiso
C35 C 0.1319(2) 0.7233(2) 0.36557(18) 0.0811 Uani
H26 H 0.1274 0.7916 0.3547 0.0970 Uiso
C36 C 0.15291(19) 0.6593(2) 0.31541(17) 0.0767 Uani
H27 H 0.1629 0.6846 0.2710 0.0920 Uiso
C37 C 0.15910(16) 0.5582(2) 0.33078(14) 0.0632 Uani
H28 H 0.1724 0.5155 0.2960 0.0760 Uiso
C38 C 0.14576(14) 0.51860(16) 0.39759(13) 0.0493 Uani
N6 N 0.20473(17) 0.20640(17) 0.52130(15) 0.0896 Uani
H29 H 0.2321 0.2009 0.4893 0.1080 Uiso
H30 H 0.1968 0.2645 0.5380 0.1080 Uiso
N7 N 0.11410(14) 0.22680(14) 0.62021(11) 0.0617 Uani
H31 H 0.0976 0.2721 0.5814 0.0740 Uiso
N8 N 0.10774(12) 0.42489(13) 0.63978(10) 0.0494 Uani
N9 N 0.11737(12) 0.54398(13) 0.51970(10) 0.0510 Uani
H32 H 0.1389 0.4844 0.5340 0.0610 Uiso
N10 N 0.15713(13) 0.41691(13) 0.41560(11) 0.0610 Uani
H33 H 0.1726 0.3777 0.3853 0.0730 Uiso
H34 H 0.1487 0.3931 0.4570 0.0730 Uiso
O3 O 0.14646(13) 0.20083(13) 0.75870(10) 0.0759 Uani
O4 O 0.04020(14) 0.66606(13) 0.55358(11) 0.0811 Uani
loop_
_atom_site_aniso_label
_atom_site_aniso_U_11
_atom_site_aniso_U_22
_atom_site_aniso_U_33
_atom_site_aniso_U_23
_atom_site_aniso_U_13
_atom_site_aniso_U_12
C1 0.0553(13) 0.0585(15) 0.0666(15) 0.0065(12) 0.0367(12) -0.0036(11)
C2 0.0629(15) 0.0721(18) 0.0913(18) 0.0224(15) 0.0421(14) 0.0010(13)
C3 0.0812(19) 0.0576(17) 0.141(3) 0.0176(19) 0.071(2) 0.0046(15)
C4 0.086(2) 0.0573(18) 0.126(3) -0.0187(17) 0.072(2) -0.0145(14)
C5 0.0711(16) 0.0637(17) 0.0827(17) -0.0143(14) 0.0497(14) -0.0096(13)
C6 0.0580(13) 0.0494(14) 0.0631(14) -0.0011(11) 0.0388(12) -0.0012(10)
C7 0.0653(14) 0.0657(16) 0.0496(13) -0.0045(12) 0.0311(11) 0.0025(12)
C8 0.0551(13) 0.0647(15) 0.0462(12) 0.0042(11) 0.0272(10) 0.0036(11)
C9 0.0856(18) 0.0806(19) 0.0504(14) 0.0031(13) 0.0387(13) 0.0062(14)
C10 0.0920(19) 0.090(2) 0.0526(14) 0.0195(14) 0.0427(14) 0.0052(15)
C11 0.0735(16) 0.0700(16) 0.0541(14) 0.0133(12) 0.0339(12) -0.0016(12)
C12 0.0459(12) 0.0601(15) 0.0461(12) 0.0092(10) 0.0212(9) -0.0012(10)
C13 0.0528(13) 0.0512(14) 0.0481(12) 0.0067(10) 0.0209(10) -0.0075(10)
C14 0.0591(13) 0.0520(14) 0.0378(11) -0.0024(10) 0.0182(10) -0.0105(10)
C15 0.102(2) 0.0545(16) 0.0536(14) -0.0003(11) 0.0320(14) -0.0101(13)
C16 0.122(2) 0.0590(17) 0.0658(17) -0.0100(14) 0.0375(17) 0.0004(15)
C17 0.0932(19) 0.081(2) 0.0511(14) -0.0099(14) 0.0300(14) 0.0017(15)
C18 0.0747(16) 0.0731(17) 0.0458(13) 0.0009(12) 0.0256(12) -0.0061(13)
C19 0.0566(13) 0.0543(14) 0.0416(11) 0.0010(10) 0.0171(10) -0.0068(10)
N1 0.0810(14) 0.0711(13) 0.0530(11) 0.0070(10) 0.0263(10) -0.0125(11)
N2 0.0719(12) 0.0522(12) 0.0515(11) -0.0018(9) 0.0343(9) -0.0004(9)
N3 0.0504(10) 0.0561(12) 0.0431(10) 0.0041(8) 0.0228(8) -0.0007(8)
N4 0.0690(12) 0.0460(10) 0.0452(10) 0.0026(8) 0.0265(9) -0.0071(9)
N5 0.1159(18) 0.0557(13) 0.0592(12) 0.0104(9) 0.0493(12) 0.0000(12)
O1 0.1337(17) 0.0736(12) 0.0674(11) -0.0128(9) 0.0615(12) 0.0020(11)
O2 0.0894(12) 0.0594(11) 0.0732(11) 0.0014(8) 0.0432(10) -0.0214(9)
C20 0.0669(15) 0.0565(15) 0.0595(14) -0.0030(11) 0.0323(12) 0.0095(11)
C21 0.094(2) 0.0673(19) 0.0776(18) -0.0053(14) 0.0400(16) 0.0179(15)
C22 0.118(3) 0.063(2) 0.0737(19) -0.0117(15) 0.0224(19) 0.0163(17)
C23 0.120(3) 0.0554(18) 0.086(2) 0.0092(15) 0.027(2) -0.0210(17)
C24 0.0879(19) 0.0779(19) 0.0684(16) 0.0128(14) 0.0380(15) -0.0055(15)
C25 0.0628(14) 0.0539(14) 0.0481(12) 0.0050(10) 0.0274(11) 0.0104(11)
C26 0.0600(14) 0.0655(15) 0.0485(13) 0.0076(11) 0.0300(11) 0.0115(11)
C27 0.0484(12) 0.0683(15) 0.0415(12) -0.0020(11) 0.0219(10) 0.0045(10)
C28 0.0648(15) 0.0832(18) 0.0468(13) -0.0040(12) 0.0293(11) 0.0012(13)
C29 0.0719(16) 0.0838(19) 0.0559(14) -0.0196(14) 0.0377(12) -0.0045(14)
C30 0.0639(14) 0.0637(15) 0.0576(14) -0.0184(12) 0.0284(12) -0.0021(11)
C31 0.0476(12) 0.0558(14) 0.0449(12) -0.0116(10) 0.0190(9) -0.0004(10)
C32 0.0585(13) 0.0468(13) 0.0542(13) -0.0116(10) 0.0236(11) 0.0004(11)
C33 0.0499(12) 0.0481(13) 0.0438(12) -0.0005(10) 0.0164(10) -0.0069(10)
C34 0.0793(17) 0.0508(15) 0.0604(15) 0.0015(11) 0.0254(13) -0.0056(12)
C35 0.101(2) 0.0567(16) 0.0797(19) 0.0125(14) 0.0356(17) -0.0128(14)
C36 0.0828(18) 0.083(2) 0.0653(16) 0.0195(15) 0.0343(14) -0.0106(15)
C37 0.0600(14) 0.0781(18) 0.0538(14) 0.0068(12) 0.0276(12) -0.0019(12)
C38 0.0447(11) 0.0536(14) 0.0479(12) 0.0030(10) 0.0194(9) -0.0002(10)
N6 0.1161(19) 0.0798(16) 0.1145(19) 0.0037(14) 0.0887(17) 0.0016(14)
N7 0.0867(14) 0.0578(12) 0.0511(11) 0.0105(9) 0.0404(10) 0.0214(10)
N8 0.0514(10) 0.0558(12) 0.0422(10) -0.0040(8) 0.0221(8) 0.0042(8)
N9 0.0584(11) 0.0453(10) 0.0487(10) -0.0012(8) 0.0237(9) 0.0011(8)
N10 0.0825(14) 0.0534(12) 0.0551(11) 0.0047(9) 0.0380(10) 0.0123(10)
O3 0.1021(14) 0.0785(12) 0.0541(10) 0.0151(9) 0.0413(9) 0.0118(10)
O4 0.1122(15) 0.0619(11) 0.0774(12) -0.0005(9) 0.0500(11) 0.0228(10)

#END
