# CIF file generated by openbabel 3.1.1, see https://openbabel.org
data_I
_chemical_name_common 'IBPRAC'
_cell_length_a 14.667
_cell_length_b 7.886
_cell_length_c 10.73
_cell_angle_alpha 90
_cell_angle_beta 99.36
_cell_angle_gamma 90
_space_group_name_H-M_alt 'P 1 21/c 1'
_space_group_name_Hall '-P 2ybc'
loop_
    _symmetry_equiv_pos_as_xyz
    x,y,z
    -x,1/2+y,1/2-z
    -x,-y,-z
    x,1/2-y,1/2+z
loop_
    _atom_site_label
    _atom_site_type_symbol
    _atom_site_fract_x
    _atom_site_fract_y
    _atom_site_fract_z
    _atom_site_occupancy
    C0       C        0.41671    0.34656    0.39822    1.000
    C1       C        0.17360    0.86444    0.70038    1.000
    C2       C        0.09851    0.73954    0.64286    1.000
    C3       C        0.04237    0.67994    0.74232    1.000
    C4       C        0.13809    0.59029    0.58184    1.000
    C5       C        0.35077    0.22141    0.32530    1.000
    C6       C        0.40138    0.10905    0.24360    1.000
    C7       C        0.30428    0.12516    0.42108    1.000
    C8       C        0.21861    0.17411    0.44601    1.000
    C9       C        0.17712    0.09016    0.53508    1.000
    C10      C        0.21975    0.95486    0.60347    1.000
    C11      C        0.30598    0.90806    0.57976    1.000
    C12      C        0.34759    0.99150    0.49003    1.000
    O13      O        0.38020    0.49366    0.41626    1.000
    O14      O        0.49697    0.31195    0.44016    1.000
    C15      C        0.58327    0.84656    0.10181    1.000
    C16      C        0.82637    0.36444    0.79955    1.000
    C17      C        0.90146    0.23954    0.85708    1.000
    C18      C        0.95761    0.17994    0.75771    1.000
    C19      C        0.86189    0.09029    0.91819    1.000
    C20      C        0.64915    0.72141    0.17473    1.000
    C21      C        0.59859    0.60905    0.25643    1.000
    C22      C        0.69569    0.62516    0.07886    1.000
    C23      C        0.78137    0.67411    0.05401    1.000
    C24      C        0.82285    0.59016    0.96485    1.000
    C25      C        0.78015    0.45486    0.89646    1.000
    C26      C        0.69399    0.40806    0.92017    1.000
    C27      C        0.65239    0.49150    0.01000    1.000
    O28      O        0.61977    0.99366    0.08367    1.000
    O29      O        0.50299    0.81195    0.05978    1.000
    C30      C        0.58329    0.65344    0.60177    1.000
    C31      C        0.82640    0.13556    0.29961    1.000
    C32      C        0.90150    0.26046    0.35713    1.000
    C33      C        0.95757    0.32006    0.25767    1.000
    C34      C        0.86193    0.40971    0.41824    1.000
    C35      C        0.64917    0.77859    0.67469    1.000
    C36      C        0.59855    0.89095    0.75639    1.000
    C37      C        0.69566    0.87484    0.57891    1.000
    C38      C        0.78140    0.82589    0.55397    1.000
    C39      C        0.82289    0.90984    0.46490    1.000
    C40      C        0.78018    0.04514    0.39652    1.000
    C41      C        0.69396    0.09194    0.42023    1.000
    C42      C        0.65241    0.00850    0.50996    1.000
    O43      O        0.61980    0.50634    0.58373    1.000
    O44      O        0.50296    0.68805    0.55983    1.000
    C45      C        0.41667    0.15344    0.89818    1.000
    C46      C        0.17357    0.63556    0.20043    1.000
    C47      C        0.09848    0.76046    0.14291    1.000
    C48      C        0.04239    0.82006    0.24228    1.000
    C49      C        0.13812    0.90971    0.08180    1.000
    C50      C        0.35079    0.27859    0.82526    1.000
    C51      C        0.40141    0.39095    0.74356    1.000
    C52      C        0.30431    0.37484    0.92113    1.000
    C53      C        0.21857    0.32589    0.94597    1.000
    C54      C        0.17709    0.40984    0.03514    1.000
    C55      C        0.21979    0.54514    0.10352    1.000
    C56      C        0.30601    0.59194    0.07981    1.000
    C57      C        0.34762    0.50850    0.98999    1.000
    O58      O        0.38017    0.00634    0.91631    1.000
    O59      O        0.49701    0.18805    0.94021    1.000
    H60      H        0.43096    0.56454    0.47152    1.000
    H61      H        0.21829    0.79571    0.76423    1.000
    H62      H        0.14495    0.94268    0.74949    1.000
    H63      H        0.05491    0.79888    0.57551    1.000
    H64      H        0.08650    0.61134    0.80664    1.000
    H65      H        0.01826    0.77403    0.78208    1.000
    H66      H        0.99548    0.60056    0.70293    1.000
    H67      H        0.17980    0.62516    0.51978    1.000
    H68      H        0.08511    0.51864    0.54169    1.000
    H69      H        0.17692    0.52917    0.65202    1.000
    H70      H        0.30612    0.28975    0.27326    1.000
    H71      H        0.45040    0.04299    0.29744    1.000
    H72      H        0.42241    0.18121    0.18079    1.000
    H73      H        0.36098    0.03145    0.19458    1.000
    H74      H        0.18959    0.26655    0.39699    1.000
    H75      H        0.11699    0.12668    0.55237    1.000
    H76      H        0.34037    0.81068    0.63332    1.000
    H77      H        0.40759    0.95270    0.47624    1.000
    H78      H        0.56895    0.06454    0.02851    1.000
    H79      H        0.78169    0.29571    0.73580    1.000
    H80      H        0.85496    0.44268    0.75053    1.000
    H81      H        0.94507    0.29888    0.92452    1.000
    H82      H        0.91348    0.11134    0.69339    1.000
    H83      H        0.98171    0.27403    0.71785    1.000
    H84      H        0.00450    0.10056    0.79710    1.000
    H85      H        0.82017    0.12516    0.98015    1.000
    H86      H        0.91487    0.01864    0.95833    1.000
    H87      H        0.82306    0.02917    0.84801    1.000
    H88      H        0.69385    0.78975    0.22668    1.000
    H89      H        0.54958    0.54299    0.20259    1.000
    H90      H        0.57756    0.68121    0.31915    1.000
    H91      H        0.63898    0.53145    0.30536    1.000
    H92      H        0.81038    0.76655    0.10304    1.000
    H93      H        0.88297    0.62668    0.94756    1.000
    H94      H        0.65961    0.31068    0.86671    1.000
    H95      H        0.59239    0.45270    0.02379    1.000
    H96      H        0.56898    0.43546    0.52847    1.000
    H97      H        0.78172    0.20429    0.23576    1.000
    H98      H        0.85499    0.05732    0.25049    1.000
    H99      H        0.94510    0.20112    0.42448    1.000
    H100     H        0.91352    0.38866    0.19344    1.000
    H101     H        0.98168    0.22597    0.21791    1.000
    H102     H        0.00446    0.39944    0.29706    1.000
    H103     H        0.82021    0.37484    0.48021    1.000
    H104     H        0.91489    0.48136    0.45829    1.000
    H105     H        0.82309    0.47083    0.34797    1.000
    H106     H        0.69389    0.71025    0.72673    1.000
    H107     H        0.54960    0.95701    0.70255    1.000
    H108     H        0.57760    0.81879    0.81920    1.000
    H109     H        0.63895    0.96855    0.80541    1.000
    H110     H        0.81041    0.73345    0.60300    1.000
    H111     H        0.88301    0.87332    0.44762    1.000
    H112     H        0.65957    0.18932    0.36667    1.000
    H113     H        0.59236    0.04730    0.52384    1.000
    H114     H        0.43098    0.93546    0.97147    1.000
    H115     H        0.21832    0.70429    0.26419    1.000
    H116     H        0.14497    0.55732    0.24945    1.000
    H117     H        0.05486    0.70112    0.07547    1.000
    H118     H        0.08652    0.88866    0.30660    1.000
    H119     H        0.01830    0.72597    0.28213    1.000
    H120     H        0.99550    0.89944    0.20289    1.000
    H121     H        0.17983    0.87484    0.01984    1.000
    H122     H        0.08507    0.98136    0.04165    1.000
    H123     H        0.17687    0.97083    0.15198    1.000
    H124     H        0.30609    0.21025    0.77331    1.000
    H125     H        0.45043    0.45701    0.79740    1.000
    H126     H        0.42238    0.31879    0.68084    1.000
    H127     H        0.36102    0.46855    0.69463    1.000
    H128     H        0.18963    0.23345    0.89704    1.000
    H129     H        0.11703    0.37332    0.05242    1.000
    H130     H        0.34040    0.68932    0.13327    1.000
    H131     H        0.40761    0.54730    0.97620    1.000
